$ -------------------------------------------------------------------- $
$ WAVEWATCH III Grid preprocessor input file                           $
$ -------------------------------------------------------------------- $
  'Hurricane Katrina 16-32-260-284         '
$
   1.1  0.04  35  36  0
   F T T T F T
    600.  300.  300.  30.
$
  &MISC FLAGTR = 0 /
  &SIN6 SINA0 = 0.45/
END OF NAMELISTS
$
  'RECT' T 'NONE'
    193     129 
     1.00   1.00     8.00 
    260.00  16.00      1.00
  -0.10   0.50  20  1.00  3  1 '(....)'  'NAME' 'bottom.inp'   
                30        3  1 '(....)'  'NAME' 'bottom_mask.inp'  
$
     0.    0.    0.    0.       0
$ -------------------------------------------------------------------- $
$ End of input file                                                    $
$ -------------------------------------------------------------------- $
