$ -------------------------------------------------------------------- $
$ WAVEWATCH III Field preprocessor input file                          $
$ -------------------------------------------------------------------- $
   'CUR' 'LL' T T
$
    260.0  284.0  193  16.0  32.0  129
$
  'NAME' 3 1 '(..T..)' '(..F..)' 
  40 'current.inp'
$ -------------------------------------------------------------------- $
$ End of input file                                                    $
$ -------------------------------------------------------------------- $
