$ -------------------------------------------------------------------- $
$ WAVEWATCH III Grid output post-processing                            $
$--------------------------------------------------------------------- $
$ Time, time increment and number of outputs
$
  20050825 000000 3600 162
$
$
$ Define points index
	1
	2
	3
	4
	5
	6
	7
	8
	-1 

$ -------------------------------------------------------------------- $
$ File prefix
$ number of characters in date
$ IX, IY range
$
 ww3.         
 10
 4
 T 150
 3
 0
 T

$ Type 3 netCDF Spectra
 4 0 0 T T T T T T T 0
$ 
$
$ -------------------------------------------------------------------- $
$ End of input file                                                    $
$ -------------------------------------------------------------------- $
